** ------------------------------------------------------------
** CalculiX Steel Cantilever Beam Benchmark
** Generated via CGX (cantilever_final.fbd): 20x20mm cross-section,
** 300mm long (L/h=15), C3D20, mesh 4x4x60 elements.
** Fixed at z=0. Pressure load (0.2 MPa, downward) on top face y=20.
** ------------------------------------------------------------
*INCLUDE, INPUT=all.msh
*INCLUDE, INPUT=NFIX.nam
*INCLUDE, INPUT=NTIP.nam

*MATERIAL, NAME=STEEL
*ELASTIC
210000.0, 0.3

*SOLID SECTION, ELSET=Eall, MATERIAL=STEEL

*BOUNDARY
NNFIX, 1, 3, 0.0

*STEP
*STATIC
*DLOAD
*INCLUDE, INPUT=TOP.dlo

*NODE FILE
U
*NODE PRINT,NSET=NNTIP
U
*EL FILE
S
*EL PRINT,ELSET=Eall
S
*END STEP
