** ------------------------------------------------------------
** 1.1 Million DOF Cantilever Beam (43,560 C3D20 Elements)
** High-Memory Direct Sparse Solver Stress Benchmark
** ------------------------------------------------------------
*INCLUDE, INPUT=all.msh
*INCLUDE, INPUT=NFIX.nam
*INCLUDE, INPUT=NTIP.nam

*MATERIAL, NAME=STEEL
*ELASTIC
210000.0, 0.3

*SOLID SECTION, ELSET=Eall, MATERIAL=STEEL

*BOUNDARY
NNFIX, 1, 3, 0.0

*STEP
*STATIC
*CLOAD
NNTIP, 2, 10.0

*NODE PRINT, NSET=NNTIP
U
*END STEP
